<?xml version='1.0' encoding='utf-8'?>
<nodes xmlns:xsi="http://www.w3.org/2001/XMLSchema-instance" xsi:noNamespaceSchemaLocation="http://sumo.dlr.de/xsd/nodes_file.xsd">
  <node id="1" x="50.0" y="1000.0" type="traffic_light" />
  <node id="2" x="500.0" y="1000.0" type="traffic_light" />
  <node id="3" x="50.0" y="750.0" type="traffic_light" />
  <node id="4" x="200.0" y="750.0" type="traffic_light" />
  <node id="5" x="350.0" y="750.0" type="traffic_light" />
  <node id="6" x="500.0" y="850.0" type="traffic_light" />
  <node id="7" x="650.0" y="750.0" type="traffic_light" />
  <node id="8" x="500.0" y="750.0" type="traffic_light" />
  <node id="9" x="350.0" y="650.0" type="traffic_light" />
  <node id="10" x="350.0" y="550.0" type="traffic_light" />
  <node id="11" x="200.0" y="550.0" type="traffic_light" />
  <node id="12" x="50.0" y="550.0" type="traffic_light" />
  <node id="13" x="50.0" y="200.0" type="traffic_light" />
  <node id="14" x="200.0" y="350.0" type="traffic_light" />
  <node id="15" x="350.0" y="350.0" type="traffic_light" />
  <node id="16" x="500.0" y="650.0" type="traffic_light" />
  <node id="17" x="500.0" y="550.0" type="traffic_light" />
  <node id="18" x="650.0" y="650.0" type="traffic_light" />
  <node id="19" x="500.0" y="350.0" type="traffic_light" />
  <node id="20" x="500.0" y="200.0" type="traffic_light" />
  <node id="21" x="350.0" y="200.0" type="traffic_light" />
  <node id="22" x="350.0" y="300.0" type="traffic_light" />
  <node id="23" x="200.0" y="200.0" type="traffic_light" />
  <node id="24" x="200.0" y="50.0" type="traffic_light" />
</nodes>