<?xml version="1.0" encoding="UTF-8"?>

<!-- generated on 2026-02-27 18:29:28 by Eclipse SUMO netconvert Version 1.20.0
<configuration xmlns:xsi="http://www.w3.org/2001/XMLSchema-instance" xsi:noNamespaceSchemaLocation="http://sumo.dlr.de/xsd/netconvertConfiguration.xsd">

    <input>
        <node-files value="sioux_falls.nod.xml"/>
        <edge-files value="sioux_falls.edg.xml"/>
    </input>

    <output>
        <output-file value="sioux_falls.net.xml"/>
    </output>

    <building_defaults>
        <default.lanewidth value="4.5"/>
    </building_defaults>

    <tls_building>
        <tls.guess value="true"/>
    </tls_building>

</configuration>
-->

<net version="1.20" junctionCornerDetail="5" limitTurnSpeed="5.50" xmlns:xsi="http://www.w3.org/2001/XMLSchema-instance" xsi:noNamespaceSchemaLocation="http://sumo.dlr.de/xsd/net_file.xsd">

    <location netOffset="-50.00,-50.00" convBoundary="0.00,0.00,600.00,950.00" origBoundary="50.00,50.00,650.00,1000.00" projParameter="!"/>

    <edge id=":1_0" function="internal">
        <lane id=":1_0_0" index="0" speed="10.63" length="25.40" width="4.50" shape="9.00,956.75 2.11,955.77 -2.81,952.81 -5.77,947.89 -6.75,941.00"/>
        <lane id=":1_0_1" index="1" speed="9.08" length="18.14" width="4.50" shape="9.00,952.25 4.08,951.55 0.56,949.44 -1.55,945.92 -2.25,941.00"/>
    </edge>
    <edge id=":1_2" function="internal">
        <lane id=":1_2_0" index="0" speed="4.63" length="3.63" width="4.50" shape="6.75,941.00 6.89,941.98 7.31,942.69 8.02,943.11 9.00,943.25"/>
        <lane id=":1_2_1" index="1" speed="7.21" length="10.89" width="4.50" shape="2.25,941.00 2.67,943.95 3.94,946.06 6.05,947.33 9.00,947.75"/>
    </edge>
    <edge id=":10_0" function="internal">
        <lane id=":10_0_0" index="0" speed="8.78" length="16.87" width="4.50" shape="293.25,520.82 292.86,514.66 291.69,510.27 289.73,507.63 287.00,506.75"/>
    </edge>
    <edge id=":10_1" function="internal">
        <lane id=":10_1_0" index="0" speed="13.89" length="33.82" width="4.50" shape="293.25,520.82 293.25,487.00"/>
        <lane id=":10_1_1" index="1" speed="13.89" length="33.82" width="4.50" shape="297.75,520.82 297.75,487.00"/>
    </edge>
    <edge id=":10_3" function="internal">
        <lane id=":10_3_0" index="0" speed="13.89" length="6.31" width="4.50" shape="297.75,520.82 299.12,514.66"/>
    </edge>
    <edge id=":10_4" function="internal">
        <lane id=":10_4_0" index="0" speed="11.17" length="4.79" width="4.50" shape="297.75,520.82 299.14,516.23"/>
    </edge>
    <edge id=":10_5" function="internal">
        <lane id=":10_5_0" index="0" speed="4.33" length="2.36" width="4.50" shape="297.75,520.82 298.88,519.13 299.17,518.98"/>
    </edge>
    <edge id=":10_30" function="internal">
        <lane id=":10_30_0" index="0" speed="13.89" length="41.75" width="4.50" shape="299.12,514.66 300.00,510.72 306.74,503.52 317.99,499.19 333.72,497.75"/>
    </edge>
    <edge id=":10_31" function="internal">
        <lane id=":10_31_0" index="0" speed="11.17" length="36.08" width="4.50" shape="299.14,516.23 300.61,511.36 308.02,508.52 318.17,510.84 329.31,516.84"/>
    </edge>
    <edge id=":10_32" function="internal">
        <lane id=":10_32_0" index="0" speed="4.33" length="4.21" width="4.50" shape="299.17,518.98 300.00,518.57 301.12,519.13 302.25,520.82"/>
    </edge>
    <edge id=":10_6" function="internal">
        <lane id=":10_6_0" index="0" speed="8.23" length="21.22" width="4.50" shape="324.32,524.32 316.63,519.71 311.14,517.59 307.85,517.96 306.75,520.82"/>
    </edge>
    <edge id=":10_7" function="internal">
        <lane id=":10_7_0" index="0" speed="13.89" length="42.87" width="4.50" shape="324.32,524.32 316.38,519.24 306.29,513.46 295.88,508.72 287.00,506.75"/>
        <lane id=":10_7_1" index="1" speed="13.89" length="42.87" width="4.50" shape="326.81,520.58 318.49,515.38 307.54,509.33 296.27,504.33 287.00,502.25"/>
    </edge>
    <edge id=":10_9" function="internal">
        <lane id=":10_9_0" index="0" speed="13.89" length="45.76" width="4.50" shape="326.81,520.58 314.10,511.21 305.02,502.50 299.57,494.43 297.75,487.00"/>
    </edge>
    <edge id=":10_10" function="internal">
        <lane id=":10_10_0" index="0" speed="9.14" length="32.22" width="4.50" shape="326.81,520.58 321.38,513.91 321.16,506.41 325.50,500.28 333.72,497.75"/>
    </edge>
    <edge id=":10_11" function="internal">
        <lane id=":10_11_0" index="0" speed="4.33" length="3.29" width="4.50" shape="326.81,520.58 326.03,518.71 326.19,517.46"/>
    </edge>
    <edge id=":10_33" function="internal">
        <lane id=":10_33_0" index="0" speed="4.33" length="3.29" width="4.50" shape="326.19,517.46 327.28,516.84 329.31,516.84"/>
    </edge>
    <edge id=":10_12" function="internal">
        <lane id=":10_12_0" index="0" speed="6.14" length="13.14" width="4.50" shape="333.72,506.75 329.32,507.15 327.53,508.34 328.36,510.32 331.81,513.09"/>
    </edge>
    <edge id=":10_13" function="internal">
        <lane id=":10_13_0" index="0" speed="12.17" length="33.75" width="4.50" shape="333.72,506.75 321.92,507.63 313.49,510.27 308.44,514.66 306.75,520.82"/>
    </edge>
    <edge id=":10_14" function="internal">
        <lane id=":10_14_0" index="0" speed="13.89" length="46.72" width="4.50" shape="333.72,506.75 287.00,506.75"/>
        <lane id=":10_14_1" index="1" speed="13.89" length="46.72" width="4.50" shape="333.72,502.25 287.00,502.25"/>
    </edge>
    <edge id=":10_16" function="internal">
        <lane id=":10_16_0" index="0" speed="13.62" length="17.32" width="4.50" shape="333.72,502.25 317.99,501.30 316.48,500.91"/>
    </edge>
    <edge id=":10_17" function="internal">
        <lane id=":10_17_0" index="0" speed="4.33" length="2.36" width="4.50" shape="333.72,502.25 332.04,501.12 331.89,500.83"/>
    </edge>
    <edge id=":10_34" function="internal">
        <lane id=":10_34_0" index="0" speed="13.62" length="25.35" width="4.50" shape="316.48,500.91 306.74,498.44 300.00,493.67 297.75,487.00"/>
    </edge>
    <edge id=":10_35" function="internal">
        <lane id=":10_35_0" index="0" speed="4.33" length="4.21" width="4.50" shape="331.89,500.83 331.47,500.00 332.04,498.88 333.72,497.75"/>
    </edge>
    <edge id=":10_18" function="internal">
        <lane id=":10_18_0" index="0" speed="11.31" length="28.95" width="4.50" shape="306.75,487.00 308.44,489.73 313.49,491.69 321.92,492.86 333.72,493.25"/>
    </edge>
    <edge id=":10_19" function="internal">
        <lane id=":10_19_0" index="0" speed="13.89" length="37.05" width="4.50" shape="306.75,487.00 308.32,492.15 313.01,498.22 320.84,505.20 331.81,513.09"/>
    </edge>
    <edge id=":10_20" function="internal">
        <lane id=":10_20_0" index="0" speed="13.89" length="33.82" width="4.50" shape="306.75,487.00 306.75,520.82"/>
        <lane id=":10_20_1" index="1" speed="13.89" length="33.82" width="4.50" shape="302.25,487.00 302.25,520.82"/>
    </edge>
    <edge id=":10_22" function="internal">
        <lane id=":10_22_0" index="0" speed="10.47" length="7.40" width="4.50" shape="302.25,487.00 301.30,493.67 300.96,494.24"/>
    </edge>
    <edge id=":10_23" function="internal">
        <lane id=":10_23_0" index="0" speed="4.33" length="2.36" width="4.50" shape="302.25,487.00 301.12,488.69 300.83,488.83"/>
    </edge>
    <edge id=":10_36" function="internal">
        <lane id=":10_36_0" index="0" speed="10.47" length="17.20" width="4.50" shape="300.96,494.24 298.44,498.44 293.67,501.30 287.00,502.25"/>
    </edge>
    <edge id=":10_37" function="internal">
        <lane id=":10_37_0" index="0" speed="4.33" length="4.21" width="4.50" shape="300.83,488.83 300.00,489.25 298.88,488.69 297.75,487.00"/>
    </edge>
    <edge id=":10_24" function="internal">
        <lane id=":10_24_0" index="0" speed="6.97" length="10.08" width="4.50" shape="287.00,493.25 289.73,492.86 291.69,491.69 292.86,489.73 293.25,487.00"/>
    </edge>
    <edge id=":10_25" function="internal">
        <lane id=":10_25_0" index="0" speed="13.89" length="46.72" width="4.50" shape="287.00,493.25 333.72,493.25"/>
        <lane id=":10_25_1" index="1" speed="13.89" length="46.72" width="4.50" shape="287.00,497.75 333.72,497.75"/>
    </edge>
    <edge id=":10_27" function="internal">
        <lane id=":10_27_0" index="0" speed="13.89" length="6.18" width="4.50" shape="287.00,497.75 293.02,499.12"/>
    </edge>
    <edge id=":10_28" function="internal">
        <lane id=":10_28_0" index="0" speed="11.71" length="6.49" width="4.50" shape="287.00,497.75 293.34,499.12"/>
    </edge>
    <edge id=":10_29" function="internal">
        <lane id=":10_29_0" index="0" speed="4.33" length="2.36" width="4.50" shape="287.00,497.75 288.69,498.88 288.83,499.17"/>
    </edge>
    <edge id=":10_38" function="internal">
        <lane id=":10_38_0" index="0" speed="13.89" length="40.55" width="4.50" shape="293.02,499.12 296.66,499.95 308.78,505.21 320.59,511.51 329.31,516.84"/>
    </edge>
    <edge id=":10_39" function="internal">
        <lane id=":10_39_0" index="0" speed="11.71" length="24.66" width="4.50" shape="293.34,499.12 293.67,499.19 298.44,503.52 301.30,510.72 302.25,520.82"/>
    </edge>
    <edge id=":10_40" function="internal">
        <lane id=":10_40_0" index="0" speed="4.33" length="4.21" width="4.50" shape="288.83,499.17 289.25,500.00 288.69,501.12 287.00,502.25"/>
    </edge>
    <edge id=":11_0" function="internal">
        <lane id=":11_0_0" index="0" speed="6.97" length="10.08" width="4.50" shape="143.25,513.00 142.86,510.27 141.69,508.31 139.73,507.14 137.00,506.75"/>
    </edge>
    <edge id=":11_1" function="internal">
        <lane id=":11_1_0" index="0" speed="13.89" length="26.00" width="4.50" shape="143.25,513.00 143.25,487.00"/>
        <lane id=":11_1_1" index="1" speed="13.89" length="26.00" width="4.50" shape="147.75,513.00 147.75,487.00"/>
    </edge>
    <edge id=":11_3" function="internal">
        <lane id=":11_3_0" index="0" speed="10.47" length="7.40" width="4.50" shape="147.75,513.00 148.70,506.33 149.04,505.76"/>
    </edge>
    <edge id=":11_4" function="internal">
        <lane id=":11_4_0" index="0" speed="4.33" length="2.36" width="4.50" shape="147.75,513.00 148.88,511.31 149.17,511.17"/>
    </edge>
    <edge id=":11_20" function="internal">
        <lane id=":11_20_0" index="0" speed="10.47" length="17.20" width="4.50" shape="149.04,505.76 151.56,501.56 156.33,498.70 163.00,497.75"/>
    </edge>
    <edge id=":11_21" function="internal">
        <lane id=":11_21_0" index="0" speed="4.33" length="4.21" width="4.50" shape="149.17,511.17 150.00,510.75 151.12,511.31 152.25,513.00"/>
    </edge>
    <edge id=":11_5" function="internal">
        <lane id=":11_5_0" index="0" speed="6.97" length="10.08" width="4.50" shape="163.00,506.75 160.27,507.14 158.31,508.31 157.14,510.27 156.75,513.00"/>
    </edge>
    <edge id=":11_6" function="internal">
        <lane id=":11_6_0" index="0" speed="13.89" length="26.00" width="4.50" shape="163.00,506.75 137.00,506.75"/>
        <lane id=":11_6_1" index="1" speed="13.89" length="26.00" width="4.50" shape="163.00,502.25 137.00,502.25"/>
    </edge>
    <edge id=":11_8" function="internal">
        <lane id=":11_8_0" index="0" speed="10.47" length="7.40" width="4.50" shape="163.00,502.25 156.33,501.30 155.76,500.96"/>
    </edge>
    <edge id=":11_9" function="internal">
        <lane id=":11_9_0" index="0" speed="4.33" length="2.36" width="4.50" shape="163.00,502.25 161.31,501.12 161.17,500.83"/>
    </edge>
    <edge id=":11_22" function="internal">
        <lane id=":11_22_0" index="0" speed="10.47" length="17.20" width="4.50" shape="155.76,500.96 151.56,498.44 148.70,493.67 147.75,487.00"/>
    </edge>
    <edge id=":11_23" function="internal">
        <lane id=":11_23_0" index="0" speed="4.33" length="4.21" width="4.50" shape="161.17,500.83 160.75,500.00 161.31,498.88 163.00,497.75"/>
    </edge>
    <edge id=":11_10" function="internal">
        <lane id=":11_10_0" index="0" speed="6.97" length="10.08" width="4.50" shape="156.75,487.00 157.14,489.73 158.31,491.69 160.27,492.86 163.00,493.25"/>
    </edge>
    <edge id=":11_11" function="internal">
        <lane id=":11_11_0" index="0" speed="13.89" length="26.00" width="4.50" shape="156.75,487.00 156.75,513.00"/>
        <lane id=":11_11_1" index="1" speed="13.89" length="26.00" width="4.50" shape="152.25,487.00 152.25,513.00"/>
    </edge>
    <edge id=":11_13" function="internal">
        <lane id=":11_13_0" index="0" speed="10.47" length="7.40" width="4.50" shape="152.25,487.00 151.30,493.67 150.96,494.24"/>
    </edge>
    <edge id=":11_14" function="internal">
        <lane id=":11_14_0" index="0" speed="4.33" length="2.36" width="4.50" shape="152.25,487.00 151.12,488.69 150.83,488.83"/>
    </edge>
    <edge id=":11_24" function="internal">
        <lane id=":11_24_0" index="0" speed="10.47" length="17.20" width="4.50" shape="150.96,494.24 148.44,498.44 143.67,501.30 137.00,502.25"/>
    </edge>
    <edge id=":11_25" function="internal">
        <lane id=":11_25_0" index="0" speed="4.33" length="4.21" width="4.50" shape="150.83,488.83 150.00,489.25 148.88,488.69 147.75,487.00"/>
    </edge>
    <edge id=":11_15" function="internal">
        <lane id=":11_15_0" index="0" speed="6.97" length="10.08" width="4.50" shape="137.00,493.25 139.73,492.86 141.69,491.69 142.86,489.73 143.25,487.00"/>
    </edge>
    <edge id=":11_16" function="internal">
        <lane id=":11_16_0" index="0" speed="13.89" length="26.00" width="4.50" shape="137.00,493.25 163.00,493.25"/>
        <lane id=":11_16_1" index="1" speed="13.89" length="26.00" width="4.50" shape="137.00,497.75 163.00,497.75"/>
    </edge>
    <edge id=":11_18" function="internal">
        <lane id=":11_18_0" index="0" speed="10.47" length="7.40" width="4.50" shape="137.00,497.75 143.67,498.70 144.24,499.04"/>
    </edge>
    <edge id=":11_19" function="internal">
        <lane id=":11_19_0" index="0" speed="4.33" length="2.36" width="4.50" shape="137.00,497.75 138.69,498.88 138.83,499.17"/>
    </edge>
    <edge id=":11_26" function="internal">
        <lane id=":11_26_0" index="0" speed="10.47" length="17.20" width="4.50" shape="144.24,499.04 148.44,501.56 151.30,506.33 152.25,513.00"/>
    </edge>
    <edge id=":11_27" function="internal">
        <lane id=":11_27_0" index="0" speed="4.33" length="4.21" width="4.50" shape="138.83,499.17 139.25,500.00 138.69,501.12 137.00,502.25"/>
    </edge>
    <edge id=":12_0" function="internal">
        <lane id=":12_0_0" index="0" speed="13.89" length="26.00" width="4.50" shape="-6.75,513.00 -6.75,487.00"/>
        <lane id=":12_0_1" index="1" speed="13.89" length="26.00" width="4.50" shape="-2.25,513.00 -2.25,487.00"/>
    </edge>
    <edge id=":12_2" function="internal">
        <lane id=":12_2_0" index="0" speed="10.47" length="7.40" width="4.50" shape="-2.25,513.00 -1.30,506.33 -0.96,505.76"/>
    </edge>
    <edge id=":12_3" function="internal">
        <lane id=":12_3_0" index="0" speed="4.33" length="2.36" width="4.50" shape="-2.25,513.00 -1.12,511.31 -0.83,511.17"/>
    </edge>
    <edge id=":12_12" function="internal">
        <lane id=":12_12_0" index="0" speed="10.47" length="17.20" width="4.50" shape="-0.96,505.76 1.56,501.56 6.33,498.70 13.00,497.75"/>
    </edge>
    <edge id=":12_13" function="internal">
        <lane id=":12_13_0" index="0" speed="4.33" length="4.21" width="4.50" shape="-0.83,511.17 0.00,510.75 1.12,511.31 2.25,513.00"/>
    </edge>
    <edge id=":12_4" function="internal">
        <lane id=":12_4_0" index="0" speed="6.97" length="10.08" width="4.50" shape="13.00,506.75 10.27,507.14 8.31,508.31 7.14,510.27 6.75,513.00"/>
        <lane id=":12_4_1" index="1" speed="8.89" length="17.34" width="4.50" shape="13.00,502.25 8.30,502.92 4.94,504.94 2.92,508.30 2.25,513.00"/>
    </edge>
    <edge id=":12_6" function="internal">
        <lane id=":12_6_0" index="0" speed="10.47" length="24.59" width="4.50" shape="13.00,502.25 6.33,501.30 1.56,498.44 -1.30,493.67 -2.25,487.00"/>
    </edge>
    <edge id=":12_7" function="internal">
        <lane id=":12_7_0" index="0" speed="4.33" length="3.29" width="4.50" shape="13.00,502.25 11.31,501.12 10.75,500.00"/>
    </edge>
    <edge id=":12_14" function="internal">
        <lane id=":12_14_0" index="0" speed="4.33" length="3.29" width="4.50" shape="10.75,500.00 11.31,498.88 13.00,497.75"/>
    </edge>
    <edge id=":12_8" function="internal">
        <lane id=":12_8_0" index="0" speed="6.97" length="10.08" width="4.50" shape="6.75,487.00 7.14,489.73 8.31,491.69 10.27,492.86 13.00,493.25"/>
    </edge>
    <edge id=":12_9" function="internal">
        <lane id=":12_9_0" index="0" speed="13.89" length="26.00" width="4.50" shape="6.75,487.00 6.75,513.00"/>
        <lane id=":12_9_1" index="1" speed="13.89" length="26.00" width="4.50" shape="2.25,487.00 2.25,513.00"/>
    </edge>
    <edge id=":12_11" function="internal">
        <lane id=":12_11_0" index="0" speed="4.33" length="2.36" width="4.50" shape="2.25,487.00 1.12,488.69 0.83,488.83"/>
    </edge>
    <edge id=":12_15" function="internal">
        <lane id=":12_15_0" index="0" speed="4.33" length="4.21" width="4.50" shape="0.83,488.83 0.00,489.25 -1.12,488.69 -2.25,487.00"/>
    </edge>
    <edge id=":13_0" function="internal">
        <lane id=":13_0_0" index="0" speed="11.67" length="12.37" width="4.50" shape="-6.75,153.73 -6.46,150.59 -5.60,147.68 -4.16,145.02 -2.14,142.59"/>
        <lane id=":13_0_1" index="1" speed="9.95" length="8.84" width="4.50" shape="-2.25,153.73 -2.04,151.48 -1.43,149.41 -0.40,147.51 1.05,145.77"/>
    </edge>
    <edge id=":13_2" function="internal">
        <lane id=":13_2_0" index="0" speed="4.98" length="1.77" width="4.50" shape="7.41,152.14 7.12,152.48 6.91,152.86 6.79,153.28 6.75,153.73"/>
        <lane id=":13_2_1" index="1" speed="7.87" length="5.30" width="4.50" shape="4.23,148.95 3.36,149.99 2.74,151.14 2.37,152.38 2.25,153.73"/>
    </edge>
    <edge id=":14_0" function="internal">
        <lane id=":14_0_0" index="0" speed="13.89" length="26.00" width="4.50" shape="143.25,313.00 143.25,287.00"/>
        <lane id=":14_0_1" index="1" speed="13.89" length="26.00" width="4.50" shape="147.75,313.00 147.75,287.00"/>
    </edge>
    <edge id=":14_2" function="internal">
        <lane id=":14_2_0" index="0" speed="10.47" length="7.40" width="4.50" shape="147.75,313.00 148.70,306.33 149.04,305.76"/>
    </edge>
    <edge id=":14_3" function="internal">
        <lane id=":14_3_0" index="0" speed="4.33" length="2.36" width="4.50" shape="147.75,313.00 148.88,311.31 149.17,311.17"/>
    </edge>
    <edge id=":14_12" function="internal">
        <lane id=":14_12_0" index="0" speed="10.47" length="17.20" width="4.50" shape="149.04,305.76 151.56,301.56 156.33,298.70 163.00,297.75"/>
    </edge>
    <edge id=":14_13" function="internal">
        <lane id=":14_13_0" index="0" speed="4.33" length="4.21" width="4.50" shape="149.17,311.17 150.00,310.75 151.12,311.31 152.25,313.00"/>
    </edge>
    <edge id=":14_4" function="internal">
        <lane id=":14_4_0" index="0" speed="6.97" length="10.08" width="4.50" shape="163.00,306.75 160.27,307.14 158.31,308.31 157.14,310.27 156.75,313.00"/>
        <lane id=":14_4_1" index="1" speed="8.89" length="17.34" width="4.50" shape="163.00,302.25 158.30,302.92 154.94,304.94 152.92,308.30 152.25,313.00"/>
    </edge>
    <edge id=":14_6" function="internal">
        <lane id=":14_6_0" index="0" speed="10.47" length="24.59" width="4.50" shape="163.00,302.25 156.33,301.30 151.56,298.44 148.70,293.67 147.75,287.00"/>
    </edge>
    <edge id=":14_7" function="internal">
        <lane id=":14_7_0" index="0" speed="4.33" length="3.29" width="4.50" shape="163.00,302.25 161.31,301.12 160.75,300.00"/>
    </edge>
    <edge id=":14_14" function="internal">
        <lane id=":14_14_0" index="0" speed="4.33" length="3.29" width="4.50" shape="160.75,300.00 161.31,298.88 163.00,297.75"/>
    </edge>
    <edge id=":14_8" function="internal">
        <lane id=":14_8_0" index="0" speed="6.97" length="10.08" width="4.50" shape="156.75,287.00 157.14,289.73 158.31,291.69 160.27,292.86 163.00,293.25"/>
    </edge>
    <edge id=":14_9" function="internal">
        <lane id=":14_9_0" index="0" speed="13.89" length="26.00" width="4.50" shape="156.75,287.00 156.75,313.00"/>
        <lane id=":14_9_1" index="1" speed="13.89" length="26.00" width="4.50" shape="152.25,287.00 152.25,313.00"/>
    </edge>
    <edge id=":14_11" function="internal">
        <lane id=":14_11_0" index="0" speed="4.33" length="2.36" width="4.50" shape="152.25,287.00 151.12,288.69 150.83,288.83"/>
    </edge>
    <edge id=":14_15" function="internal">
        <lane id=":14_15_0" index="0" speed="4.33" length="4.21" width="4.50" shape="150.83,288.83 150.00,289.25 148.88,288.69 147.75,287.00"/>
    </edge>
    <edge id=":15_0" function="internal">
        <lane id=":15_0_0" index="0" speed="6.97" length="10.08" width="4.50" shape="293.25,313.00 292.86,310.27 291.69,308.31 289.73,307.14 287.00,306.75"/>
    </edge>
    <edge id=":15_1" function="internal">
        <lane id=":15_1_0" index="0" speed="13.89" length="26.00" width="4.50" shape="293.25,313.00 293.25,287.00"/>
        <lane id=":15_1_1" index="1" speed="13.89" length="26.00" width="4.50" shape="297.75,313.00 297.75,287.00"/>
    </edge>
    <edge id=":15_3" function="internal">
        <lane id=":15_3_0" index="0" speed="10.47" length="7.40" width="4.50" shape="297.75,313.00 298.70,306.33 299.04,305.76"/>
    </edge>
    <edge id=":15_4" function="internal">
        <lane id=":15_4_0" index="0" speed="4.33" length="2.36" width="4.50" shape="297.75,313.00 298.88,311.31 299.17,311.17"/>
    </edge>
    <edge id=":15_20" function="internal">
        <lane id=":15_20_0" index="0" speed="10.47" length="17.20" width="4.50" shape="299.04,305.76 301.56,301.56 306.33,298.70 313.00,297.75"/>
    </edge>
    <edge id=":15_21" function="internal">
        <lane id=":15_21_0" index="0" speed="4.33" length="4.21" width="4.50" shape="299.17,311.17 300.00,310.75 301.12,311.31 302.25,313.00"/>
    </edge>
    <edge id=":15_5" function="internal">
        <lane id=":15_5_0" index="0" speed="6.97" length="10.08" width="4.50" shape="313.00,306.75 310.27,307.14 308.31,308.31 307.14,310.27 306.75,313.00"/>
    </edge>
    <edge id=":15_6" function="internal">
        <lane id=":15_6_0" index="0" speed="13.89" length="26.00" width="4.50" shape="313.00,306.75 287.00,306.75"/>
        <lane id=":15_6_1" index="1" speed="13.89" length="26.00" width="4.50" shape="313.00,302.25 287.00,302.25"/>
    </edge>
    <edge id=":15_8" function="internal">
        <lane id=":15_8_0" index="0" speed="10.47" length="7.40" width="4.50" shape="313.00,302.25 306.33,301.30 305.76,300.96"/>
    </edge>
    <edge id=":15_9" function="internal">
        <lane id=":15_9_0" index="0" speed="4.33" length="2.36" width="4.50" shape="313.00,302.25 311.31,301.12 311.17,300.83"/>
    </edge>
    <edge id=":15_22" function="internal">
        <lane id=":15_22_0" index="0" speed="10.47" length="17.20" width="4.50" shape="305.76,300.96 301.56,298.44 298.70,293.67 297.75,287.00"/>
    </edge>
    <edge id=":15_23" function="internal">
        <lane id=":15_23_0" index="0" speed="4.33" length="4.21" width="4.50" shape="311.17,300.83 310.75,300.00 311.31,298.88 313.00,297.75"/>
    </edge>
    <edge id=":15_10" function="internal">
        <lane id=":15_10_0" index="0" speed="6.97" length="10.08" width="4.50" shape="306.75,287.00 307.14,289.73 308.31,291.69 310.27,292.86 313.00,293.25"/>
    </edge>
    <edge id=":15_11" function="internal">
        <lane id=":15_11_0" index="0" speed="13.89" length="26.00" width="4.50" shape="306.75,287.00 306.75,313.00"/>
        <lane id=":15_11_1" index="1" speed="13.89" length="26.00" width="4.50" shape="302.25,287.00 302.25,313.00"/>
    </edge>
    <edge id=":15_13" function="internal">
        <lane id=":15_13_0" index="0" speed="10.47" length="7.40" width="4.50" shape="302.25,287.00 301.30,293.67 300.96,294.24"/>
    </edge>
    <edge id=":15_14" function="internal">
        <lane id=":15_14_0" index="0" speed="4.33" length="2.36" width="4.50" shape="302.25,287.00 301.12,288.69 300.83,288.83"/>
    </edge>
    <edge id=":15_24" function="internal">
        <lane id=":15_24_0" index="0" speed="10.47" length="17.20" width="4.50" shape="300.96,294.24 298.44,298.44 293.67,301.30 287.00,302.25"/>
    </edge>
    <edge id=":15_25" function="internal">
        <lane id=":15_25_0" index="0" speed="4.33" length="4.21" width="4.50" shape="300.83,288.83 300.00,289.25 298.88,288.69 297.75,287.00"/>
    </edge>
    <edge id=":15_15" function="internal">
        <lane id=":15_15_0" index="0" speed="6.97" length="10.08" width="4.50" shape="287.00,293.25 289.73,292.86 291.69,291.69 292.86,289.73 293.25,287.00"/>
    </edge>
    <edge id=":15_16" function="internal">
        <lane id=":15_16_0" index="0" speed="13.89" length="26.00" width="4.50" shape="287.00,293.25 313.00,293.25"/>
        <lane id=":15_16_1" index="1" speed="13.89" length="26.00" width="4.50" shape="287.00,297.75 313.00,297.75"/>
    </edge>
    <edge id=":15_18" function="internal">
        <lane id=":15_18_0" index="0" speed="10.47" length="7.40" width="4.50" shape="287.00,297.75 293.67,298.70 294.24,299.04"/>
    </edge>
    <edge id=":15_19" function="internal">
        <lane id=":15_19_0" index="0" speed="4.33" length="2.36" width="4.50" shape="287.00,297.75 288.69,298.88 288.83,299.17"/>
    </edge>
    <edge id=":15_26" function="internal">
        <lane id=":15_26_0" index="0" speed="10.47" length="17.20" width="4.50" shape="294.24,299.04 298.44,301.56 301.30,306.33 302.25,313.00"/>
    </edge>
    <edge id=":15_27" function="internal">
        <lane id=":15_27_0" index="0" speed="4.33" length="4.21" width="4.50" shape="288.83,299.17 289.25,300.00 288.69,301.12 287.00,302.25"/>
    </edge>
    <edge id=":16_0" function="internal">
        <lane id=":16_0_0" index="0" speed="13.89" length="24.61" width="4.50" shape="443.25,613.00 442.36,608.30 439.67,603.57 435.20,598.83 428.94,594.07"/>
    </edge>
    <edge id=":16_1" function="internal">
        <lane id=":16_1_0" index="0" speed="13.89" length="33.82" width="4.50" shape="443.25,613.00 443.25,579.18"/>
        <lane id=":16_1_1" index="1" speed="13.89" length="33.82" width="4.50" shape="447.75,613.00 447.75,579.18"/>
    </edge>
    <edge id=":16_3" function="internal">
        <lane id=":16_3_0" index="0" speed="10.47" length="7.40" width="4.50" shape="447.75,613.00 448.70,606.33 449.04,605.76"/>
    </edge>
    <edge id=":16_4" function="internal">
        <lane id=":16_4_0" index="0" speed="4.33" length="2.36" width="4.50" shape="447.75,613.00 448.88,611.31 449.17,611.17"/>
    </edge>
    <edge id=":16_20" function="internal">
        <lane id=":16_20_0" index="0" speed="10.47" length="17.20" width="4.50" shape="449.04,605.76 451.56,601.56 456.33,598.70 463.00,597.75"/>
    </edge>
    <edge id=":16_21" function="internal">
        <lane id=":16_21_0" index="0" speed="4.33" length="4.21" width="4.50" shape="449.17,611.17 450.00,610.75 451.12,611.31 452.25,613.00"/>
    </edge>
    <edge id=":16_5" function="internal">
        <lane id=":16_5_0" index="0" speed="6.97" length="10.08" width="4.50" shape="463.00,606.75 460.27,607.14 458.31,608.31 457.14,610.27 456.75,613.00"/>
    </edge>
    <edge id=":16_6" function="internal">
        <lane id=":16_6_0" index="0" speed="13.89" length="35.41" width="4.50" shape="463.00,606.75 454.63,605.55 445.34,602.49 436.36,598.39 428.94,594.07"/>
        <lane id=":16_6_1" index="1" speed="13.89" length="35.41" width="4.50" shape="463.00,602.25 455.02,601.17 446.59,598.37 438.47,594.53 431.43,590.33"/>
    </edge>
    <edge id=":16_8" function="internal">
        <lane id=":16_8_0" index="0" speed="11.71" length="7.89" width="4.50" shape="463.00,602.25 456.33,600.81 455.54,600.09"/>
    </edge>
    <edge id=":16_9" function="internal">
        <lane id=":16_9_0" index="0" speed="4.33" length="2.51" width="4.50" shape="463.00,602.25 461.31,601.12 461.10,600.70"/>
    </edge>
    <edge id=":16_22" function="internal">
        <lane id=":16_22_0" index="0" speed="11.71" length="23.26" width="4.50" shape="455.54,600.09 451.56,596.48 448.70,589.28 447.75,579.18"/>
    </edge>
    <edge id=":16_23" function="internal">
        <lane id=":16_23_0" index="0" speed="4.33" length="4.07" width="4.50" shape="461.10,600.70 460.75,600.00 461.31,598.88 463.00,597.75"/>
    </edge>
    <edge id=":16_10" function="internal">
        <lane id=":16_10_0" index="0" speed="8.78" length="16.87" width="4.50" shape="456.75,579.18 457.14,585.34 458.31,589.73 460.27,592.37 463.00,593.25"/>
    </edge>
    <edge id=":16_11" function="internal">
        <lane id=":16_11_0" index="0" speed="13.89" length="33.82" width="4.50" shape="456.75,579.18 456.75,613.00"/>
        <lane id=":16_11_1" index="1" speed="13.89" length="33.82" width="4.50" shape="452.25,579.18 452.25,613.00"/>
    </edge>
    <edge id=":16_13" function="internal">
        <lane id=":16_13_0" index="0" speed="9.71" length="6.75" width="4.50" shape="452.25,579.18 450.88,585.79"/>
    </edge>
    <edge id=":16_14" function="internal">
        <lane id=":16_14_0" index="0" speed="4.33" length="2.36" width="4.50" shape="452.25,579.18 451.12,580.87 450.83,581.02"/>
    </edge>
    <edge id=":16_24" function="internal">
        <lane id=":16_24_0" index="0" speed="9.71" length="23.67" width="4.50" shape="450.88,585.79 450.53,587.48 445.93,592.40 439.29,593.50 431.43,590.33"/>
    </edge>
    <edge id=":16_25" function="internal">
        <lane id=":16_25_0" index="0" speed="4.33" length="4.21" width="4.50" shape="450.83,581.02 450.00,581.43 448.88,580.87 447.75,579.18"/>
    </edge>
    <edge id=":16_15" function="internal">