<?xml version='1.0' encoding='utf-8'?>
<edges xmlns:xsi="http://www.w3.org/2001/XMLSchema-instance" xsi:noNamespaceSchemaLocation="http://sumo.dlr.de/xsd/edges_file.xsd">
  <edge id="1to2" from="1" to="2" numLanes="2" speed="13.89" length="41.67" />
  <edge id="1to3" from="1" to="3" numLanes="2" speed="13.89" length="27.78" />
  <edge id="2to1" from="2" to="1" numLanes="2" speed="13.89" length="41.67" />
  <edge id="2to6" from="2" to="6" numLanes="2" speed="13.89" length="34.73" />
  <edge id="3to1" from="3" to="1" numLanes="2" speed="13.89" length="27.78" />
  <edge id="3to4" from="3" to="4" numLanes="2" speed="13.89" length="27.78" />
  <edge id="3to12" from="3" to="12" numLanes="2" speed="13.89" length="27.78" />
  <edge id="4to3" from="4" to="3" numLanes="2" speed="13.89" length="27.78" />
  <edge id="4to5" from="4" to="5" numLanes="2" speed="13.89" length="13.89" />
  <edge id="4to11" from="4" to="11" numLanes="2" speed="13.89" length="41.67" />
  <edge id="5to4" from="5" to="4" numLanes="2" speed="13.89" length="13.89" />
  <edge id="5to6" from="5" to="6" numLanes="2" speed="13.89" length="27.78" />
  <edge id="5to9" from="5" to="9" numLanes="2" speed="13.89" length="34.73" />
  <edge id="6to2" from="6" to="2" numLanes="2" speed="13.89" length="34.73" />
  <edge id="6to5" from="6" to="5" numLanes="2" speed="13.89" length="27.78" />
  <edge id="6to8" from="6" to="8" numLanes="2" speed="13.89" length="13.89" />
  <edge id="7to8" from="7" to="8" numLanes="2" speed="13.89" length="20.84" />
  <edge id="7to18" from="7" to="18" numLanes="2" speed="13.89" length="13.89" />
  <edge id="8to6" from="8" to="6" numLanes="2" speed="13.89" length="13.89" />
  <edge id="8to7" from="8" to="7" numLanes="2" speed="13.89" length="20.84" />
  <edge id="8to9" from="8" to="9" numLanes="2" speed="13.89" length="69.45" />
  <edge id="8to16" from="8" to="16" numLanes="2" speed="13.89" length="34.73" />
  <edge id="9to5" from="9" to="5" numLanes="2" speed="13.89" length="34.73" />
  <edge id="9to8" from="9" to="8" numLanes="2" speed="13.89" length="69.45" />
  <edge id="9to10" from="9" to="10" numLanes="2" speed="13.89" length="20.84" />
  <edge id="10to9" from="10" to="9" numLanes="2" speed="13.89" length="20.84" />
  <edge id="10to11" from="10" to="11" numLanes="2" speed="13.89" length="34.73" />
  <edge id="10to15" from="10" to="15" numLanes="2" speed="13.89" length="41.67" />
  <edge id="10to16" from="10" to="16" numLanes="2" speed="13.89" length="27.78" />
  <edge id="10to17" from="10" to="17" numLanes="2" speed="13.89" length="55.56" />
  <edge id="11to4" from="11" to="4" numLanes="2" speed="13.89" length="41.67" />
  <edge id="11to10" from="11" to="10" numLanes="2" speed="13.89" length="34.73" />
  <edge id="11to12" from="11" to="12" numLanes="2" speed="13.89" length="41.67" />
  <edge id="11to14" from="11" to="14" numLanes="2" speed="13.89" length="27.78" />
  <edge id="12to3" from="12" to="3" numLanes="2" speed="13.89" length="27.78" />
  <edge id="12to11" from="12" to="11" numLanes="2" speed="13.89" length="41.67" />
  <edge id="12to13" from="12" to="13" numLanes="2" speed="13.89" length="20.84" />
  <edge id="13to12" from="13" to="12" numLanes="2" speed="13.89" length="20.84" />
  <edge id="13to24" from="13" to="24" numLanes="2" speed="13.89" length="27.78" />
  <edge id="14to11" from="14" to="11" numLanes="2" speed="13.89" length="27.78" />
  <edge id="14to15" from="14" to="15" numLanes="2" speed="13.89" length="34.73" />
  <edge id="14to23" from="14" to="23" numLanes="2" speed="13.89" length="27.78" />
  <edge id="15to10" from="15" to="10" numLanes="2" speed="13.89" length="41.67" />
  <edge id="15to14" from="15" to="14" numLanes="2" speed="13.89" length="34.73" />
  <edge id="15to19" from="15" to="19" numLanes="2" speed="13.89" length="20.84" />
  <edge id="15to22" from="15" to="22" numLanes="2" speed="13.89" length="20.84" />
  <edge id="16to8" from="16" to="8" numLanes="2" speed="13.89" length="34.73" />
  <edge id="16to10" from="16" to="10" numLanes="2" speed="13.89" length="27.78" />
  <edge id="16to17" from="16" to="17" numLanes="2" speed="13.89" length="13.89" />
  <edge id="16to18" from="16" to="18" numLanes="2" speed="13.89" length="20.84" />
  <edge id="17to10" from="17" to="10" numLanes="2" speed="13.89" length="55.56" />
  <edge id="17to16" from="17" to="16" numLanes="2" speed="13.89" length="13.89" />
  <edge id="17to19" from="17" to="19" numLanes="2" speed="13.89" length="13.89" />
  <edge id="18to7" from="18" to="7" numLanes="2" speed="13.89" length="13.89" />
  <edge id="18to16" from="18" to="16" numLanes="2" speed="13.89" length="20.84" />
  <edge id="18to20" from="18" to="20" numLanes="2" speed="13.89" length="27.78" />
  <edge id="19to15" from="19" to="15" numLanes="2" speed="13.89" length="20.84" />
  <edge id="19to17" from="19" to="17" numLanes="2" speed="13.89" length="13.89" />
  <edge id="19to20" from="19" to="20" numLanes="2" speed="13.89" length="27.78" />
  <edge id="20to18" from="20" to="18" numLanes="2" speed="13.89" length="27.78" />
  <edge id="20to19" from="20" to="19" numLanes="2" speed="13.89" length="27.78" />
  <edge id="20to21" from="20" to="21" numLanes="2" speed="13.89" length="41.67" />
  <edge id="20to22" from="20" to="22" numLanes="2" speed="13.89" length="34.73" />
  <edge id="21to20" from="21" to="20" numLanes="2" speed="13.89" length="41.67" />
  <edge id="21to22" from="21" to="22" numLanes="2" speed="13.89" length="13.89" />
  <edge id="21to24" from="21" to="24" numLanes="2" speed="13.89" length="20.84" />
  <edge id="22to15" from="22" to="15" numLanes="2" speed="13.89" length="20.84" />
  <edge id="22to20" from="22" to="20" numLanes="2" speed="13.89" length="34.73" />
  <edge id="22to21" from="22" to="21" numLanes="2" speed="13.89" length="13.89" />
  <edge id="22to23" from="22" to="23" numLanes="2" speed="13.89" length="27.78" />
  <edge id="23to14" from="23" to="14" numLanes="2" speed="13.89" length="27.78" />
  <edge id="23to22" from="23" to="22" numLanes="2" speed="13.89" length="27.78" />
  <edge id="23to24" from="23" to="24" numLanes="2" speed="13.89" length="13.89" />
  <edge id="24to13" from="24" to="13" numLanes="2" speed="13.89" length="27.78" />
  <edge id="24to21" from="24" to="21" numLanes="2" speed="13.89" length="20.84" />
  <edge id="24to23" from="24" to="23" numLanes="2" speed="13.89" length="13.89" />
</edges>